// Generated for: spectre
// Generated on: Jan 15 19:32:21 2026
// Design library name: ECE391Lib
// Design cell name: Sim_inv
// Design view name: schematic
simulator lang=spectre
global 0
